@<TRIPOS>MOLECULE
dmog-orca.out	Energy:    -664.4728512
    21    20     1     0     0
SMALL
NO_CHARGES
****
Generated from the CSD

@<TRIPOS>ATOM
     1 O        0.9945  -0.0458   0.0891   O.3       1 RES1   0.0000
     2 C        0.3380   0.7786  -0.7409   C.2       1 RES1   0.0000
     3 C        1.1583   1.7067  -1.6712   C.2       1 RES1   0.0000
     4 O       -0.8804   0.7827  -0.7438   O.2       1 RES1   0.0000
     5 C        2.4226  -0.1813   0.2263   C.3       1 RES1   0.0000
     6 N        0.4334   2.5296  -2.4940   N.am      1 RES1   0.0000
     7 O        2.3917   1.7196  -1.6868   O.2       1 RES1   0.0000
     8 C       -1.0062   2.7008  -2.6634   C.3       1 RES1   0.0000
     9 C       -1.5706   3.7173  -3.6747   C.2       1 RES1   0.0000
    10 O       -0.8308   4.5288  -4.4848   O.3       1 RES1   0.0000
    11 O       -2.7763   3.7966  -3.7523   O.2       1 RES1   0.0000
    12 C        0.5905   4.6107  -4.5707   C.3       1 RES1   0.0000
    13 H        2.5550  -0.9555   1.0054   H         1 RES1   0.0000
    14 H        2.8894   0.7689   0.5445   H         1 RES1   0.0000
    15 H        2.8902  -0.5049  -0.7217   H         1 RES1   0.0000
    16 H        1.0625   3.0958  -3.0632   H         1 RES1   0.0000
    17 H       -1.4837   2.9719  -1.7003   H         1 RES1   0.0000
    18 H       -1.4849   1.7392  -2.9384   H         1 RES1   0.0000
    19 H        0.8016   5.3790  -5.3377   H         1 RES1   0.0000
    20 H        1.0485   3.6576  -4.9130   H         1 RES1   0.0000
    21 H        1.0522   4.9493  -3.6180   H         1 RES1   0.0000
@<TRIPOS>BOND
     1     1     2    1
     2     1     5    1
     3     2     3    1
     4     2     4    2
     5     3     6   am
     6     3     7    2
     7     5    13    1
     8     5    14    1
     9     5    15    1
    10     6     8    1
    11     6    16    1
    12     8     9    1
    13     8    17    1
    14     8    18    1
    15     9    10    1
    16     9    11    2
    17    10    12    1
    18    12    19    1
    19    12    20    1
    20    12    21    1
@<TRIPOS>SUBSTRUCTURE
     1 RES1        1 GROUP             0 ****  ****    0  
